version 2
run One-0-20111213-13:19:54-16228
attr configname One
attr datetime 20111213-13:19:54
attr experiment One
attr inifile omnetpp.ini
attr iterationvars ""
attr iterationvars2 $repetition=0
attr measurement ""
attr network PowerDeviceTestAcctsNet
attr processid 16228
attr repetition 0
attr replication #0
attr resultdir results
attr runnumber 0
attr seedset 0

scalar PowerDeviceTestAcctsNet.host[0].batteryStats 	nominal 	10800
attr unit  mW-s
scalar PowerDeviceTestAcctsNet.host[0].batteryStats 	total 	8160
attr unit  mW-s
scalar PowerDeviceTestAcctsNet.host[0].batteryStats 	lifetime 	-1
attr unit  s
scalar PowerDeviceTestAcctsNet.host[0].batteryStats 	"Mean power consumption" 	1632
attr unit  mW
scalar PowerDeviceTestAcctsNet.host[0].batteryStats 	"num devices" 	1
scalar PowerDeviceTestAcctsNet.host[0].batteryStats 	DeviceDuty 	0
scalar PowerDeviceTestAcctsNet.host[0].batteryStats 	"device total (mWs)" 	8160
scalar PowerDeviceTestAcctsNet.host[0].batteryStats 	account 	0
scalar PowerDeviceTestAcctsNet.host[0].batteryStats 	"energy (mWs)" 	1500
scalar PowerDeviceTestAcctsNet.host[0].batteryStats 	"time (s)" 	1
scalar PowerDeviceTestAcctsNet.host[0].batteryStats 	account 	1
scalar PowerDeviceTestAcctsNet.host[0].batteryStats 	"energy (mWs)" 	6000
scalar PowerDeviceTestAcctsNet.host[0].batteryStats 	"time (s)" 	2
scalar PowerDeviceTestAcctsNet.host[0].batteryStats 	account 	2
scalar PowerDeviceTestAcctsNet.host[0].batteryStats 	"energy (mWs)" 	660
scalar PowerDeviceTestAcctsNet.host[0].batteryStats 	"time (s)" 	0
