version 2
run Four-0-20111213-13:19:54-16191
attr configname Four
attr datetime 20111213-13:19:54
attr experiment Four
attr inifile omnetpp.ini
attr iterationvars ""
attr iterationvars2 $repetition=0
attr measurement ""
attr network PowerDeviceTestMultiNet
attr processid 16191
attr repetition 0
attr replication #0
attr resultdir results
attr runnumber 0
attr seedset 0

scalar PowerDeviceTestMultiNet.host[0].batteryStats 	nominal 	10800
attr unit  mW-s
scalar PowerDeviceTestMultiNet.host[0].batteryStats 	total 	9900
attr unit  mW-s
scalar PowerDeviceTestMultiNet.host[0].batteryStats 	lifetime 	-1
attr unit  s
scalar PowerDeviceTestMultiNet.host[0].batteryStats 	"Mean power consumption" 	1650
attr unit  mW
scalar PowerDeviceTestMultiNet.host[0].batteryStats 	"num devices" 	2
scalar PowerDeviceTestMultiNet.host[0].batteryStats 	DeviceDutySimple 	0
scalar PowerDeviceTestMultiNet.host[0].batteryStats 	"device total (mWs)" 	6660
scalar PowerDeviceTestMultiNet.host[0].batteryStats 	account 	0
scalar PowerDeviceTestMultiNet.host[0].batteryStats 	"energy (mWs)" 	6660
scalar PowerDeviceTestMultiNet.host[0].batteryStats 	"time (s)" 	1.8
scalar PowerDeviceTestMultiNet.host[0].batteryStats 	DeviceDutySimple 	1
scalar PowerDeviceTestMultiNet.host[0].batteryStats 	"device total (mWs)" 	3240
scalar PowerDeviceTestMultiNet.host[0].batteryStats 	account 	0
scalar PowerDeviceTestMultiNet.host[0].batteryStats 	"energy (mWs)" 	3240
scalar PowerDeviceTestMultiNet.host[0].batteryStats 	"time (s)" 	1.8
