version 2
run One-0-20111213-13:19:53-16188
attr configname One
attr datetime 20111213-13:19:53
attr experiment One
attr inifile omnetpp.ini
attr iterationvars ""
attr iterationvars2 $repetition=0
attr measurement ""
attr network PowerDeviceTestMultiNet
attr processid 16188
attr repetition 0
attr replication #0
attr resultdir results
attr runnumber 0
attr seedset 0

scalar PowerDeviceTestMultiNet.host[0].batteryStats 	nominal 	10800
attr unit  mW-s
scalar PowerDeviceTestMultiNet.host[0].batteryStats 	total 	10800
attr unit  mW-s
scalar PowerDeviceTestMultiNet.host[0].batteryStats 	lifetime 	6.3
attr unit  s
scalar PowerDeviceTestMultiNet.host[0].batteryStats 	"Mean power consumption" 	720
attr unit  mW
scalar PowerDeviceTestMultiNet.host[0].batteryStats 	"num devices" 	2
scalar PowerDeviceTestMultiNet.host[0].batteryStats 	DeviceDutySimple 	0
scalar PowerDeviceTestMultiNet.host[0].batteryStats 	"device total (mWs)" 	7560
scalar PowerDeviceTestMultiNet.host[0].batteryStats 	account 	0
scalar PowerDeviceTestMultiNet.host[0].batteryStats 	"energy (mWs)" 	7560
scalar PowerDeviceTestMultiNet.host[0].batteryStats 	"time (s)" 	2.1
scalar PowerDeviceTestMultiNet.host[0].batteryStats 	DeviceDutySimple 	1
scalar PowerDeviceTestMultiNet.host[0].batteryStats 	"device total (mWs)" 	3510
scalar PowerDeviceTestMultiNet.host[0].batteryStats 	account 	0
scalar PowerDeviceTestMultiNet.host[0].batteryStats 	"energy (mWs)" 	3510
scalar PowerDeviceTestMultiNet.host[0].batteryStats 	"time (s)" 	0.975
