version 2
run One-0-20111213-13:19:55-16266
attr configname One
attr datetime 20111213-13:19:55
attr experiment One
attr inifile omnetpp.ini
attr iterationvars ""
attr iterationvars2 $repetition=0
attr measurement ""
attr network PowerDeviceTestAllNet
attr processid 16266
attr repetition 0
attr replication #0
attr resultdir results
attr runnumber 0
attr seedset 0

scalar PowerDeviceTestAllNet.host[0].batteryStats 	nominal 	10800
attr unit  mW-s
scalar PowerDeviceTestAllNet.host[0].batteryStats 	total 	10800
attr unit  mW-s
scalar PowerDeviceTestAllNet.host[0].batteryStats 	lifetime 	3.05
attr unit  s
scalar PowerDeviceTestAllNet.host[0].batteryStats 	"Mean power consumption" 	1080
attr unit  mW
scalar PowerDeviceTestAllNet.host[0].batteryStats 	"num devices" 	3
scalar PowerDeviceTestAllNet.host[0].batteryStats 	DeviceDutySimple 	0
scalar PowerDeviceTestAllNet.host[0].batteryStats 	"device total (mWs)" 	3660
scalar PowerDeviceTestAllNet.host[0].batteryStats 	account 	0
scalar PowerDeviceTestAllNet.host[0].batteryStats 	"energy (mWs)" 	3660
scalar PowerDeviceTestAllNet.host[0].batteryStats 	"time (s)" 	0.86
scalar PowerDeviceTestAllNet.host[0].batteryStats 	DeviceDuty 	1
scalar PowerDeviceTestAllNet.host[0].batteryStats 	"device total (mWs)" 	4995
scalar PowerDeviceTestAllNet.host[0].batteryStats 	account 	0
scalar PowerDeviceTestAllNet.host[0].batteryStats 	"energy (mWs)" 	975
scalar PowerDeviceTestAllNet.host[0].batteryStats 	"time (s)" 	0.65
scalar PowerDeviceTestAllNet.host[0].batteryStats 	account 	1
scalar PowerDeviceTestAllNet.host[0].batteryStats 	"energy (mWs)" 	3600
scalar PowerDeviceTestAllNet.host[0].batteryStats 	"time (s)" 	1.2
scalar PowerDeviceTestAllNet.host[0].batteryStats 	account 	2
scalar PowerDeviceTestAllNet.host[0].batteryStats 	"energy (mWs)" 	420
scalar PowerDeviceTestAllNet.host[0].batteryStats 	"time (s)" 	0
scalar PowerDeviceTestAllNet.host[0].batteryStats 	DeviceDutySimple 	2
scalar PowerDeviceTestAllNet.host[0].batteryStats 	"device total (mWs)" 	2160
scalar PowerDeviceTestAllNet.host[0].batteryStats 	account 	0
scalar PowerDeviceTestAllNet.host[0].batteryStats 	"energy (mWs)" 	2160
scalar PowerDeviceTestAllNet.host[0].batteryStats 	"time (s)" 	0
