version 2
run Six-0-20111213-13:19:50-16142
attr configname Six
attr datetime 20111213-13:19:50
attr experiment Six
attr inifile omnetpp.ini
attr iterationvars ""
attr iterationvars2 $repetition=0
attr measurement ""
attr network PowerDeviceTestNet
attr processid 16142
attr repetition 0
attr replication #0
attr resultdir results
attr runnumber 0
attr seedset 0

scalar PowerDeviceTestNet.host[0].batteryStats 	nominal 	10800
attr unit  mW-s
scalar PowerDeviceTestNet.host[0].batteryStats 	total 	5400
attr unit  mW-s
scalar PowerDeviceTestNet.host[0].batteryStats 	lifetime 	-1
attr unit  s
scalar PowerDeviceTestNet.host[0].batteryStats 	"Mean power consumption" 	1161.29
attr unit  mW
scalar PowerDeviceTestNet.host[0].batteryStats 	"num devices" 	1
scalar PowerDeviceTestNet.host[0].batteryStats 	DeviceDutySimple 	0
scalar PowerDeviceTestNet.host[0].batteryStats 	"device total (mWs)" 	5400
scalar PowerDeviceTestNet.host[0].batteryStats 	account 	0
scalar PowerDeviceTestNet.host[0].batteryStats 	"energy (mWs)" 	5400
scalar PowerDeviceTestNet.host[0].batteryStats 	"time (s)" 	1.5
