version 2
run Twelve-0-20111213-13:19:52-16149
attr configname Twelve
attr datetime 20111213-13:19:52
attr experiment Twelve
attr inifile omnetpp.ini
attr iterationvars ""
attr iterationvars2 $repetition=0
attr measurement ""
attr network PowerDeviceTestNet
attr processid 16149
attr repetition 0
attr replication #0
attr resultdir results
attr runnumber 0
attr seedset 0

scalar PowerDeviceTestNet.host[0].subscriber 	HostState::FAILED 	4.3
scalar PowerDeviceTestNet.host[0].batteryStats 	nominal 	5400
attr unit  mW-s
scalar PowerDeviceTestNet.host[0].batteryStats 	total 	5400
attr unit  mW-s
scalar PowerDeviceTestNet.host[0].batteryStats 	lifetime 	4.3
attr unit  s
scalar PowerDeviceTestNet.host[0].batteryStats 	"Mean power consumption" 	360
attr unit  mW
scalar PowerDeviceTestNet.host[0].batteryStats 	"num devices" 	1
scalar PowerDeviceTestNet.host[0].batteryStats 	DeviceDutySimple 	0
scalar PowerDeviceTestNet.host[0].batteryStats 	"device total (mWs)" 	5400
scalar PowerDeviceTestNet.host[0].batteryStats 	account 	0
scalar PowerDeviceTestNet.host[0].batteryStats 	"energy (mWs)" 	5400
scalar PowerDeviceTestNet.host[0].batteryStats 	"time (s)" 	1.5
