version 2
run Two-0-20111213-13:19:49-16138
attr configname Two
attr datetime 20111213-13:19:49
attr experiment Two
attr inifile omnetpp.ini
attr iterationvars ""
attr iterationvars2 $repetition=0
attr measurement ""
attr network PowerDeviceTestNet
attr processid 16138
attr repetition 0
attr replication #0
attr resultdir results
attr runnumber 0
attr seedset 0

scalar PowerDeviceTestNet.host[0].subscriber 	HostState::FAILED 	9.3
scalar PowerDeviceTestNet.host[0].batteryStats 	nominal 	10800
attr unit  mW-s
scalar PowerDeviceTestNet.host[0].batteryStats 	total 	10800
attr unit  mW-s
scalar PowerDeviceTestNet.host[0].batteryStats 	lifetime 	9.3
attr unit  s
scalar PowerDeviceTestNet.host[0].batteryStats 	"Mean power consumption" 	720
attr unit  mW
scalar PowerDeviceTestNet.host[0].batteryStats 	"num devices" 	1
scalar PowerDeviceTestNet.host[0].batteryStats 	DeviceDutySimple 	0
scalar PowerDeviceTestNet.host[0].batteryStats 	"device total (mWs)" 	10800
scalar PowerDeviceTestNet.host[0].batteryStats 	account 	0
scalar PowerDeviceTestNet.host[0].batteryStats 	"energy (mWs)" 	10800
scalar PowerDeviceTestNet.host[0].batteryStats 	"time (s)" 	3
